
Note: No compatibility mode selected!


Circuit: * 01_dc_op.cir -- dc operating point & compliance margin (testing_plan part 1, test 1)

Doing analysis at TEMP = 27.000000 and TNOM = 27.000000


No. of Data Rows : 101
Note: Simulation executed from .control section 
