
Note: No compatibility mode selected!


Circuit: * 02_ratiometric.cir -- ratiometric correctness / sanity (testing_plan part 1, test 2)

Doing analysis at TEMP = 27.000000 and TNOM = 27.000000


No. of Data Rows : 101
Note: Simulation executed from .control section 
