
Note: No compatibility mode selected!


Circuit: * 03_accuracy_rref.cir -- accuracy sensitivity to r_ref (testing_plan part 1, test 3)

Doing analysis at TEMP = 27.000000 and TNOM = 27.000000


No. of Data Rows : 41
Note: Simulation executed from .control section 
