
Note: No compatibility mode selected!


Circuit: * 07_crosstalk.cir -- shared star-ground crosstalk (testing_plan part 1, test 7)

Doing analysis at TEMP = 27.000000 and TNOM = 27.000000


No. of Data Rows : 101
Note: Simulation executed from .control section 
